powerfulcases/cases/matpower/case2848rte/case2848rte.raw
0, 100, 33, 0, 0, 60  / 28-Jan-2026 21:51:37 - MATPOWER 8.1


     1, 'BUS 1       ',        63, 1,    1,    1, 1,  1.05470451, -6.36026061, 1.06349, 0.936508, 1.06349, 0.936508
     2, 'BUS 2       ',       225, 1,    1,    1, 1,  1.02159805, -10.0314743, 1.08889, 0.888889, 1.08889, 0.888889
     3, 'BUS 3       ',       380, 1,    1,    1, 1,  1.05588778, -3.06269451, 1.10263,    1, 1.10263,    1
     4, 'BUS 4       ',        63, 1,    1,    1, 1,  1.03948873, -12.6263397, 1.07937, 0.920635, 1.07937, 0.920635
     5, 'BUS 5       ',        45, 1,    1,    1, 1, 0.940804175, -6.95718171,    1, 0.888889,    1, 0.888889
     6, 'BUS 6       ',        45, 1,    1,    1, 1, 0.941885188, -6.97237088,    1, 0.888889,    1, 0.888889
     7, 'BUS 7       ',       225, 1,    1,    1, 1,  1.05055953, -2.81195782, 1.08444,    1, 1.08444,    1
     8, 'BUS 8       ',        63, 1,    1,    1, 1,   1.0071444, -12.4478352, 1.06349, 0.968254, 1.06349, 0.968254
     9, 'BUS 9       ',        20, 1,    1,    1, 1,  1.04132742, -4.20175523,  1.2,  0.8,  1.2,  0.8
  2966, 'BUS 2966    ',        20, 1,    1,    1, 1,  1.00669238, -7.54386139,  1.2,  0.8,  1.2,  0.8
    10, 'BUS 10      ',       150, 1,    1,    1, 1,  1.05503926, -6.89751672, 1.10667,  0.9, 1.10667,  0.9
    11, 'BUS 11      ',       225, 1,    1,    1, 1,  1.05818138, -7.16161201, 1.08889, 0.933333, 1.08889, 0.933333
  2571, 'BUS 2571    ',       225, 1,    1,    1, 1,  1.05428054, -6.88624557, 1.08889, 0.933333, 1.08889, 0.933333
    12, 'BUS 12      ',       380, 1,    1,    1, 1,  1.06222639, -4.24366423, 1.10526,    1, 1.10526,    1
    13, 'BUS 13      ',       225, 1,    1,    1, 1,  1.03414703, -9.76584244, 1.09067,    1, 1.09067,    1
    14, 'BUS 14      ',        63, 1,    1,    1, 1,   1.0215438, -9.38943925, 1.06349, 0.936508, 1.06349, 0.936508
    15, 'BUS 15      ',        63, 1,    1,    1, 1,  1.04614056, -8.39002618, 1.06349, 0.936508, 1.06349, 0.936508
    16, 'BUS 16      ',       225, 1,    1,    1, 1,  1.06403453, -8.65058577, 1.08889, 0.933333, 1.08889, 0.933333
    17, 'BUS 17      ',       225, 1,    1,    1, 1,  1.02935099, -12.4430446, 1.08889,    1, 1.08889,    1
    18, 'BUS 18      ',       225, 1,    1,    1, 1,   1.0075651, -9.91263869, 1.08962,    1, 1.08962,    1
    19, 'BUS 19      ',        63, 2,    1,    1, 1,       1.049,   -8.246157, 1.08661, 0.920635, 1.08661, 0.920635
    20, 'BUS 20      ',       225, 1,    1,    1, 1,  1.02929559, -12.4534553, 1.08889,    1, 1.08889,    1
    21, 'BUS 21      ',       225, 1,    1,    1, 1,  1.02562416, -6.46141759, 1.08889, 0.888889, 1.08889, 0.888889
    22, 'BUS 22      ',        63, 1,    1,    1, 1,  1.09924094, -10.8960451, 1.07249, 0.936508, 1.07249, 0.936508
    23, 'BUS 23      ',        63, 1,    1,    1, 1,   1.0301766, -9.27643904, 1.06349, 0.936508, 1.06349, 0.936508
    24, 'BUS 24      ',       225, 1,    1,    1, 1,  1.03910213, -6.68968647, 1.08889,    1, 1.08889,    1
  2573, 'BUS 2573    ',       225, 1,    1,    1, 1,  1.03910921, -6.69233272, 1.08889,    1, 1.08889,    1
    25, 'BUS 25      ',       225, 1,    1,    1, 1,  1.02598542, -6.49866255, 1.08889, 0.888889, 1.08889, 0.888889
    26, 'BUS 26      ',       225, 1,    1,    1, 1,  1.06325955, -1.70151189, 1.09649, 0.986667, 1.09649, 0.986667
    27, 'BUS 27      ',        63, 1,    1,    1, 1,  1.05527933, -8.77731848, 1.06349, 0.936508, 1.06349, 0.936508
    28, 'BUS 28      ',       225, 1,    1,    1, 1,  1.01993061, -10.9621246, 1.08889,    1, 1.08889,    1
  2574, 'BUS 2574    ',       225, 1,    1,    1, 1,  1.01988664,  -10.965406, 1.08889,    1, 1.08889,    1
    29, 'BUS 29      ',        63, 1,    1,    1, 1,  1.03819592, -8.39782087, 1.06349, 0.936508, 1.06349, 0.936508
    30, 'BUS 30      ',       225, 1,    1,    1, 1,  1.03258071, -10.6681728, 1.08889,    1, 1.08889,    1
    31, 'BUS 31      ',        63, 1,    1,    1, 1,  1.04938692,  -6.3603325, 1.07211, 0.936508, 1.07211, 0.936508
    32, 'BUS 32      ',        63, 1,    1,    1, 1,  1.04250787, -8.31281305, 1.06349, 0.936508, 1.06349, 0.936508
    33, 'BUS 33      ',        45, 1,    1,    1, 1, 0.940485632, -7.25819904,    1, 0.888889,    1, 0.888889
    34, 'BUS 34      ',        45, 1,    1,    1, 1, 0.940865068, -6.95267473,    1, 0.888889,    1, 0.888889
    35, 'BUS 35      ',        63, 1,    1,    1, 1,  1.03234966, -13.0968693, 1.06349, 0.968254, 1.06349, 0.968254
    36, 'BUS 36      ',        45, 1,    1,    1, 1, 0.988075344, -9.71068641,    1, 0.888889,    1, 0.888889
    37, 'BUS 37      ',        63, 1,    1,    1, 1,  1.04678026, -7.87153815, 1.06349, 0.936508, 1.06349, 0.936508
    39, 'BUS 39      ',       225, 1,    1,    1, 1,  1.05160168, -6.13328797, 1.08934, 0.986667, 1.08934, 0.986667
    40, 'BUS 40      ',       225, 1,    1,    1, 1,  1.03063944, -8.10910456, 1.08889, 0.888889, 1.08889, 0.888889
    41, 'BUS 41      ',       225, 1,    1,    1, 1,  1.06101612, -20.3127254, 1.08444,    1, 1.08444,    1
    42, 'BUS 42      ',        63, 1,    1,    1, 1,  1.05037433, -6.38658783, 1.0637, 0.936508, 1.0637, 0.936508
    43, 'BUS 43      ',       225, 1,    1,    1, 1,  1.05574253, -5.20380665, 1.08889, 0.933333, 1.08889, 0.933333
    44, 'BUS 44      ',        63, 1,    1,    1, 1,  1.03096413, -13.3440235, 1.06349, 0.968254, 1.06349, 0.968254
    45, 'BUS 45      ',       225, 1,    1,    1, 1,  1.02760856, -8.13451475, 1.08889,    1, 1.08889,    1
    46, 'BUS 46      ',       380, 1,    1,    1, 1,  1.05587689, -3.05334806, 1.10526,    1, 1.10526,    1
  2575, 'BUS 2575    ',       380, 1,    1,    1, 1,  1.05588619, -3.04946991, 1.10526,    1, 1.10526,    1
    47, 'BUS 47      ',        63, 1,    1,    1, 1,  1.03304321, -5.13913852, 1.06606, 0.936508, 1.06606, 0.936508
    48, 'BUS 48      ',        63, 1,    1,    1, 1,  1.05369464, -6.66317717, 1.06735, 0.936508, 1.06735, 0.936508
    49, 'BUS 49      ',        63, 1,    1,    1, 1,   1.0303725, -6.10178718, 1.06349, 0.968254, 1.06349, 0.968254
  2576, 'BUS 2576    ',        63, 1,    1,    1, 1,   1.0302496, -6.84730915, 1.06349, 0.968254, 1.06349, 0.968254
    50, 'BUS 50      ',       225, 1,    1,    1, 1,  1.05751774, -5.77466491, 1.08444,    1, 1.08444,    1
    51, 'BUS 51      ',       225, 1,    1,    1, 1,  1.04138928, -9.34301151, 1.08444,    1, 1.08444,    1
    52, 'BUS 52      ',       225, 1,    1,    1, 1,  1.02965965, -12.3109268, 1.08889,    1, 1.08889,    1
  2942, 'BUS 2942    ',       225, 1,    1,    1, 1,   1.0173724, -12.1166435, 1.08889,    1, 1.08889,    1
    53, 'BUS 53      ',        63, 2,    1,    1, 1,        1.05, -9.86414774, 1.06349, 0.968254, 1.06349, 0.968254
    54, 'BUS 54      ',       150, 1,    1,    1, 1,  1.06856453, -8.92739903, 1.08, 0.966667, 1.08, 0.966667
    55, 'BUS 55      ',       225, 1,    1,    1, 1,  1.01750681, -22.5640563, 1.09459,    1, 1.09459,    1
    56, 'BUS 56      ',       380, 1,    1,    1, 1,  1.02812553, -20.2896436, 1.10526,    1, 1.10526,    1
    57, 'BUS 57      ',       225, 1,    1,    1, 1,  1.05169697, -9.38998454, 1.08889, 0.986667, 1.08889, 0.986667
    58, 'BUS 58      ',        20, 1,    1,    1, 1,  1.02139829, -6.61396329,  1.2,  0.8,  1.2,  0.8
    59, 'BUS 59      ',       225, 1,    1,    1, 1,  1.02572051, -6.37982103, 1.08889, 0.968889, 1.08889, 0.968889
    60, 'BUS 60      ',       380, 1,    1,    1, 1,  1.02923842, -5.15337783, 1.10526,    1, 1.10526,    1
    61, 'BUS 61      ',        63, 1,    1,    1, 1,  1.05015512, -7.76189029, 1.06349, 0.936508, 1.06349, 0.936508
    62, 'BUS 62      ',        63, 1,    1,    1, 1, 0.999480934,  -13.640044, 1.06349, 0.968254, 1.06349, 0.968254
    63, 'BUS 63      ',        63, 1,    1,    1, 1, 0.999689018, -13.6374304, 1.06349, 0.968254, 1.06349, 0.968254
  2577, 'BUS 2577    ',        63, 1,    1,    1, 1, 0.999684281, -14.9082168, 1.06349, 0.968254, 1.06349, 0.968254
    64, 'BUS 64      ',       225, 1,    1,    1, 1,  1.06725685, -5.84543649, 1.08889, 0.933333, 1.08889, 0.933333
    65, 'BUS 65      ',        63, 1,    1,    1, 1, 0.999663036, -14.9116454, 1.06349, 0.968254, 1.06349, 0.968254
    66, 'BUS 66      ',        45, 1,    1,    1, 1, 0.997367849, -6.30218084,    1, 0.888889,    1, 0.888889
  2578, 'BUS 2578    ',        45, 2,    1,    1, 1,           1, -6.33871659,    1, 0.888889,    1, 0.888889
    67, 'BUS 67      ',       225, 1,    1,    1, 1,   1.0310041,  -7.7303186, 1.08889, 0.888889, 1.08889, 0.888889
  2579, 'BUS 2579    ',       225, 1,    1,    1, 1,   1.0305907, -7.82315842, 1.08889, 0.888889, 1.08889, 0.888889
    68, 'BUS 68      ',        20, 1,    1,    1, 1,  1.03362169, -16.0862093,  1.2,  0.8,  1.2,  0.8
    69, 'BUS 69      ',       225, 1,    1,    1, 1,  1.03360711,  -16.084233, 1.08685,    1, 1.08685,    1
    70, 'BUS 70      ',       225, 1,    1,    1, 1,    1.034954, -11.8072494, 1.08889,    1, 1.08889,    1
    71, 'BUS 71      ',       150, 2,    1,    1, 1,       1.079, -9.57327967, 1.10885,  0.9, 1.10885,  0.9
    72, 'BUS 72      ',       225, 1,    1,    1, 1,  1.02511353,  -10.801354, 1.08889,    1, 1.08889,    1
  2580, 'BUS 2580    ',       225, 1,    1,    1, 1,  1.02511332, -10.8013528, 1.08889,    1, 1.08889,    1
    74, 'BUS 74      ',       225, 1,    1,    1, 1,  1.02511209, -10.8013459, 1.08889,    1, 1.08889,    1
    75, 'BUS 75      ',        63, 1,    1,    1, 1,  1.03893454, -5.27223942, 1.06349, 0.936508, 1.06349, 0.936508
    76, 'BUS 76      ',        45, 2,    1,    1, 1,       0.953, -5.60214855,    1, 0.888889,    1, 0.888889
    77, 'BUS 77      ',        63, 1,    1,    1, 1,  1.04829988, -9.04774903, 1.08481, 0.920635, 1.08481, 0.920635
    78, 'BUS 78      ',       225, 1,    1,    1, 1,  1.02659198, -8.46669539, 1.08889,    1, 1.08889,    1
    79, 'BUS 79      ',        63, 1,    1,    1, 1,  1.02059953, -23.2891822, 1.07937, 0.920635, 1.07937, 0.920635
    80, 'BUS 80      ',        63, 1,    1,    1, 1,  1.05709923, -10.2916878, 1.08744, 0.920635, 1.08744, 0.920635
    81, 'BUS 81      ',       225, 1,    1,    1, 1,  1.05316553, -11.9798632, 1.08889,    1, 1.08889,    1
    82, 'BUS 82      ',       225, 1,    1,    1, 1,  1.03021446, -8.29389364, 1.08889, 0.888889, 1.08889, 0.888889
    83, 'BUS 83      ',        63, 1,    1,    1, 1,  1.01336719, -17.7847619, 1.06349, 0.967399, 1.06349, 0.967399
    84, 'BUS 84      ',       225, 1,    1,    1, 1,  1.00899018, -6.86088938, 1.08889, 0.968889, 1.08889, 0.968889
    85, 'BUS 85      ',       380, 1,    1,    1, 1,  1.00582323, -4.80208979, 1.10526,    1, 1.10526,    1
    86, 'BUS 86      ',        63, 1,    1,    1, 1,  1.01449967, -15.6928268, 1.06349, 0.968254, 1.06349, 0.968254
    87, 'BUS 87      ',        63, 1,    1,    1, 1,  1.02594104, -7.92848984, 1.06349, 0.968254, 1.06349, 0.968254
    88, 'BUS 88      ',        63, 1,    1,    1, 1,  1.01573779, -10.8697023, 1.06349, 0.968254, 1.06349, 0.968254
    89, 'BUS 89      ',        63, 1,    1,    1, 1, 0.995988807,  -8.9710933, 1.06349, 0.968254, 1.06349, 0.968254
  2581, 'BUS 2581    ',        63, 1,    1,    1, 1, 0.995955047, -8.89879361, 1.06349, 0.968254, 1.06349, 0.968254
    90, 'BUS 90      ',       225, 1,    1,    1, 1,    1.040345, -8.81928779, 1.08444,    1, 1.08444,    1
  2582, 'BUS 2582    ',       225, 1,    1,    1, 1,  1.04046537, -8.81886463, 1.08444,    1, 1.08444,    1
    91, 'BUS 91      ',       225, 1,    1,    1, 1,  1.03589901, -12.9847819, 1.08889,    1, 1.08889,    1
    92, 'BUS 92      ',       225, 1,    1,    1, 1,   1.0773422, -4.35184814, 1.09041, 0.933333, 1.09041, 0.933333
    93, 'BUS 93      ',       150, 2,    1,    1, 1,       1.078, -9.67303839, 1.10907,  0.9, 1.10907,  0.9
    94, 'BUS 94      ',       225, 1,    1,    1, 1,  1.03370721,   -7.579802, 1.08444,    1, 1.08444,    1
  2583, 'BUS 2583    ',       225, 1,    1,    1, 1,   1.0346576, -7.58567408, 1.08444,    1, 1.08444,    1
    95, 'BUS 95      ',       225, 1,    1,    1, 1,  1.03512475, -7.90435919, 1.08889, 0.977778, 1.08889, 0.977778
    96, 'BUS 96      ',       225, 1,    1,    1, 1,  1.04308726, -6.05919942, 1.08889, 0.888889, 1.08889, 0.888889
    97, 'BUS 97      ',        63, 1,    1,    1, 1,  1.00116437,   -14.57533, 1.06349, 0.968254, 1.06349, 0.968254
    98, 'BUS 98      ',       225, 1,    1,    1, 1,  1.05435999, -7.28660136, 1.08889, 0.933333, 1.08889, 0.933333
    99, 'BUS 99      ',       225, 1,    1,    1, 1,  1.03406228, -9.82270804, 1.08889,    1, 1.08889,    1
  2584, 'BUS 2584    ',       225, 1,    1,    1, 1,  1.00686529, -10.0792538, 1.08889,    1, 1.08889,    1
   100, 'BUS 100     ',       225, 1,    1,    1, 1,  1.05230707, -12.2736164, 1.08889,    1, 1.08889,    1
   101, 'BUS 101     ',       225, 1,    1,    1, 1,   1.0477396, -5.78079344, 1.08889, 0.986667, 1.08889, 0.986667
   102, 'BUS 102     ',       225, 1,    1,    1, 1,  1.03543967, -7.59799652, 1.08889, 0.888889, 1.08889, 0.888889
  2585, 'BUS 2585    ',       225, 1,    1,    1, 1,  1.03250713, -7.70002071, 1.08889, 0.888889, 1.08889, 0.888889
   103, 'BUS 103     ',       380, 1,    1,    1, 1,   1.0354284, -5.85418481, 1.10526,    1, 1.10526,    1
   104, 'BUS 104     ',       225, 1,    1,    1, 1,  1.02012385, -11.1249232, 1.08889,    1, 1.08889,    1
  2586, 'BUS 2586    ',       225, 1,    1,    1, 1,  1.02519836, -9.92093035, 1.08889,    1, 1.08889,    1
   105, 'BUS 105     ',        63, 1,    1,    1, 1,  1.02240628, -11.7394734, 1.07937, 0.920635, 1.07937, 0.920635
   106, 'BUS 106     ',       225, 1,    1,    1, 1,  1.05453368, -6.30318143, 1.08889, 0.977778, 1.08889, 0.977778
  2587, 'BUS 2587    ',       225, 1,    1,    1, 1,  1.05454939, -6.30342404, 1.08889, 0.977778, 1.08889, 0.977778
   107, 'BUS 107     ',        63, 1,    1,    1, 1,  1.03341873, -9.33683254, 1.06349, 0.968254, 1.06349, 0.968254
   108, 'BUS 108     ',       225, 1,    1,    1, 1,  1.05327278, -6.84719521, 1.08444,    1, 1.08444,    1
   109, 'BUS 109     ',       225, 1,    1,    1, 1,  1.04505982, -5.67696448, 1.08444,    1, 1.08444,    1
   110, 'BUS 110     ',       380, 1,    1,    1, 1,  1.04245389, 0.658976821, 1.10263,    1, 1.10263,    1
   111, 'BUS 111     ',       225, 1,    1,    1, 1,   1.0449323, -5.74055895, 1.08444,    1, 1.08444,    1
   112, 'BUS 112     ',       225, 1,    1,    1, 1,  1.00833098, -9.79513081, 1.09035,    1, 1.09035,    1
  2588, 'BUS 2588    ',       225, 1,    1,    1, 1,  1.00830403, -9.80171214, 1.09035,    1, 1.09035,    1
   113, 'BUS 113     ',       225, 1,    1,    1, 1,  1.05835537,  -2.9554883, 1.08889, 0.888889, 1.08889, 0.888889
   114, 'BUS 114     ',        63, 1,    1,    1, 1,   1.0458544,   -8.537789, 1.06349, 0.936508, 1.06349, 0.936508
   115, 'BUS 115     ',       225, 1,    1,    1, 1,  1.02989719, -7.47988769, 1.08889, 0.888889, 1.08889, 0.888889
   116, 'BUS 116     ',       225, 1,    1,    1, 1,  1.00893367, -7.47468297, 1.08889, 0.888889, 1.08889, 0.888889
   117, 'BUS 117     ',        63, 1,    1,    1, 1,  1.04056825, -7.77992158, 1.06349, 0.968254, 1.06349, 0.968254
   118, 'BUS 118     ',        63, 1,    1,    1, 1,  1.00631183, -25.3303958, 1.07937, 0.920635, 1.07937, 0.920635
   119, 'BUS 119     ',        63, 1,    1,    1, 1,    1.027299, -15.3864117, 1.06349, 0.968254, 1.06349, 0.968254
   120, 'BUS 120     ',        63, 2,    1,    1, 1,       1.038, -6.16337145, 1.06863, 0.936508, 1.06863, 0.936508
   121, 'BUS 121     ',        63, 1,    1,    1, 1,  1.03115825, -18.4930713, 1.06349, 0.968254, 1.06349, 0.968254
  2589, 'BUS 2589    ',        63, 1,    1,    1, 1,  1.03151661, -18.5003924, 1.06349, 0.968254, 1.06349, 0.968254
   122, 'BUS 122     ',       225, 1,    1,    1, 1,  1.02568006, -7.97134302, 1.08889,    1, 1.08889,    1
   123, 'BUS 123     ',        63, 1,    1,    1, 1,  1.03854288, -13.8649462, 1.07937, 0.920635, 1.07937, 0.920635
   124, 'BUS 124     ',        63, 2,    1,    1, 1,       1.047, -10.0473018, 1.08203, 0.920635, 1.08203, 0.920635
   125, 'BUS 125     ',        63, 1,    1,    1, 1,  1.03627903,  -18.561608, 1.07937, 0.920635, 1.07937, 0.920635
   126, 'BUS 126     ',       225, 1,    1,    1, 1,  1.01319228, -12.8327281, 1.08889,    1, 1.08889,    1
   127, 'BUS 127     ',       380, 1,    1,    1, 1,  1.05062871, -12.8751284, 1.10526,    1, 1.10526,    1
   128, 'BUS 128     ',        63, 1,    1,    1, 1,   1.0548165,  -6.4342118, 1.06349, 0.936508, 1.06349, 0.936508
   129, 'BUS 129     ',        63, 2,    1,    1, 1,       1.029,  -7.4188605, 1.06349, 0.936508, 1.06349, 0.936508
   130, 'BUS 130     ',        63, 1,    1,    1, 1,   1.0438103, -13.0828949, 1.07937, 0.920635, 1.07937, 0.920635
   131, 'BUS 131     ',       225, 1,    1,    1, 1,  1.04997009,  -11.375814, 1.08889,    1, 1.08889,    1
   132, 'BUS 132     ',       225, 1,    1,    1, 1,  1.04787402, -10.5448015, 1.08889,    1, 1.08889,    1
   133, 'BUS 133     ',        63, 2,    1,    1, 1,       1.028, -21.4059689, 1.06538, 0.968254, 1.06538, 0.968254
   134, 'BUS 134     ',       150, 2,    1,    1, 1,       1.042, -15.5753316, 1.08, 0.966667, 1.08, 0.966667
   135, 'BUS 135     ',        63, 2,    1,    1, 1,       1.066, -10.8988078, 1.07937, 0.920635, 1.07937, 0.920635
   136, 'BUS 136     ',       225, 1,    1,    1, 1,  1.03361325, -4.09140552, 1.08889, 0.986667, 1.08889, 0.986667
   137, 'BUS 137     ',        63, 1,    1,    1, 1,  1.01208758, -12.7523015, 1.06349, 0.968254, 1.06349, 0.968254
   138, 'BUS 138     ',       225, 1,    1,    1, 1,  1.07000448, -4.36673714, 1.08444,    1, 1.08444,    1
   139, 'BUS 139     ',        63, 1,    1,    1, 1,   1.0098168, -20.8608447, 1.06349, 0.968254, 1.06349, 0.968254
   140, 'BUS 140     ',       380, 1,    1,    1, 1,  1.02957315, -2.43049674, 1.10526,    1, 1.10526,    1
  2590, 'BUS 2590    ',       380, 1,    1,    1, 1,  1.03059016, -2.74964759, 1.10526,    1, 1.10526,    1
   141, 'BUS 141     ',       225, 1,    1,    1, 1,  1.02794966, -8.01355421, 1.08889,    1, 1.08889,    1
   142, 'BUS 142     ',       225, 1,    1,    1, 1,  1.03527316, -10.5477788, 1.08889,    1, 1.08889,    1
   143, 'BUS 143     ',        63, 1,    1,    1, 1,   1.0156966, -14.3067102, 1.06349, 0.968254, 1.06349, 0.968254
   144, 'BUS 144     ',       150, 1,    1,    1, 1,  1.06450753, -11.4790353,  1.1,  0.9,  1.1,  0.9
   145, 'BUS 145     ',       225, 1,    1,    1, 1,  1.03168242, -14.3088938, 1.08925,    1, 1.08925,    1
   146, 'BUS 146     ',       225, 2,    1,    1, 1,        1.02, -10.9841092, 1.08889,    1, 1.08889,    1
   147, 'BUS 147     ',       225, 1,    1,    1, 1,  1.05726942, -7.25386689, 1.08889, 0.933333, 1.08889, 0.933333
   148, 'BUS 148     ',       380, 1,    1,    1, 1,  1.06212699, -4.22135461, 1.10526,    1, 1.10526,    1
  2591, 'BUS 2591    ',       380, 1,    1,    1, 1,  1.06215942, -4.21515111, 1.10526,    1, 1.10526,    1
   149, 'BUS 149     ',       225, 1,    1,    1, 1,  1.02963817,  -12.423694, 1.08889,    1, 1.08889,    1
  2592, 'BUS 2592    ',       225, 1,    1,    1, 1,  1.01653799, -12.2983583, 1.08889,    1, 1.08889,    1
   150, 'BUS 150     ',       225, 1,    1,    1, 1,  1.01066159, -5.39373722, 1.08889, 0.986667, 1.08889, 0.986667
   151, 'BUS 151     ',       225, 1,    1,    1, 1,  1.02946506,   -12.43406, 1.08889,    1, 1.08889,    1
   152, 'BUS 152     ',        20, 1,    1,    1, 1,  1.06476781, -3.62849011,  1.2,  0.8,  1.2,  0.8
   153, 'BUS 153     ',       225, 1,    1,    1, 1,  1.05668343, -3.22112522, 1.08889, 0.933333, 1.08889, 0.933333
   154, 'BUS 154     ',       380, 1,    1,    1, 1,  1.05807749, -1.38344872, 1.10526,    1, 1.10526,    1
   155, 'BUS 155     ',       225, 1,    1,    1, 1,  1.02642423, -6.35525738, 1.08889,    1, 1.08889,    1
   156, 'BUS 156     ',        63, 1,    1,    1, 1,  1.05933631, -7.56367112, 1.06503, 0.936508, 1.06503, 0.936508
   157, 'BUS 157     ',        63, 1,    1,    1, 1,  1.03786549, -9.40822782, 1.06349, 0.968254, 1.06349, 0.968254
   158, 'BUS 158     ',        63, 1,    1,    1, 1,  1.02886987, -15.0271693, 1.07937, 0.920635, 1.07937, 0.920635
   159, 'BUS 159     ',        63, 1,    1,    1, 1,  1.01435913, -16.3125652, 1.06349, 0.968254, 1.06349, 0.968254
   160, 'BUS 160     ',        63, 1,    1,    1, 1,  1.05293054, -8.69416637, 1.06349, 0.936508, 1.06349, 0.936508
   161, 'BUS 161     ',        63, 2,    1,    1, 1,       1.063,  -15.102627, 1.15,  0.8, 1.15,  0.8
   162, 'BUS 162     ',       225, 1,    1,    1, 1,  1.03530426,  -11.220724, 1.09053,    1, 1.09053,    1
   163, 'BUS 163     ',        63, 1,    1,    1, 1,  1.03097224, -23.8741599, 1.06349, 0.968254, 1.06349, 0.968254
   164, 'BUS 164     ',       225, 1,    1,    1, 1,  1.04298945, -15.2894298, 1.09791,    1, 1.09791,    1
   165, 'BUS 165     ',       225, 1,    1,    1, 1,  1.03980018, -3.98818151, 1.08889, 0.986667, 1.08889, 0.986667
   166, 'BUS 166     ',        63, 1,    1,    1, 1,   1.0138269, -10.9079236, 1.06349, 0.968254, 1.06349, 0.968254
   167, 'BUS 167     ',       225, 1,    1,    1, 1,  1.03414515,  -9.7605369, 1.09067,    1, 1.09067,    1
   168, 'BUS 168     ',        63, 1,    1,    1, 1,  1.05143246, -8.21379396, 1.06349, 0.936508, 1.06349, 0.936508
   169, 'BUS 169     ',        63, 1,    1,    1, 1,  1.03977254, -11.0520793, 1.06349, 0.968254, 1.06349, 0.968254
   170, 'BUS 170     ',        63, 1,    1,    1, 1,  1.04549514, -7.92681615, 1.06822, 0.936508, 1.06822, 0.936508
   171, 'BUS 171     ',       225, 1,    1,    1, 1,   1.0279787, -8.48321396, 1.08889, 0.924444, 1.08889, 0.924444
   172, 'BUS 172     ',        63, 2,    1,    1, 1,  1.03117205, -7.46842751, 1.06349, 0.968254, 1.06349, 0.968254
   173, 'BUS 173     ',       225, 1,    1,    1, 1,  1.05679354, -0.866806167, 1.09616, 0.986667, 1.09616, 0.986667
   174, 'BUS 174     ',       380, 1,    1,    1, 1,  1.05916881, -0.28973401, 1.10526,    1, 1.10526,    1
   175, 'BUS 175     ',       225, 1,    1,    1, 1,  1.05104139, -13.6865226, 1.08444,    1, 1.08444,    1
   176, 'BUS 176     ',        20, 1,    1,    1, 1,  1.00911929, -19.4666264,  1.2,  0.8,  1.2,  0.8
   177, 'BUS 177     ',        63, 1,    1,    1, 1,  0.98594024, -20.9282754, 1.06349, 0.960855, 1.06349, 0.960855
   178, 'BUS 178     ',       225, 1,    1,    1, 1,  1.05933935, -19.1624772, 1.08444,    1, 1.08444,    1
   179, 'BUS 179     ',       380, 1,    1,    1, 1,  1.05477538,  -16.725398, 1.10263,    1, 1.10263,    1
...
0 / END OF BUS DATA, BEGIN LOAD DATA
     1,  1, 1,    1,    1,      20.6,         0, 0, 0, 0, 0, 1, 1, 0
     2,  1, 1,    1,    1,      20.9,      17.2, 0, 0, 0, 0, 1, 1, 0
     5,  1, 1,    1,    1,       0.4,       0.1, 0, 0, 0, 0, 1, 1, 0
     6,  1, 1,    1,    1,      -2.3,     -20.6, 0, 0, 0, 0, 1, 1, 0
     7,  1, 1,    1,    1,     110.5,     -25.5, 0, 0, 0, 0, 1, 1, 0
     8,  1, 1,    1,    1,      44.7,       1.5, 0, 0, 0, 0, 1, 1, 0
    11,  1, 1,    1,    1,      31.7,      -8.7, 0, 0, 0, 0, 1, 1, 0
  2571,  1, 1,    1,    1,      43.7,       9.9, 0, 0, 0, 0, 1, 1, 0
    14,  1, 1,    1,    1,      -4.1,       3.7, 0, 0, 0, 0, 1, 1, 0
    15,  1, 1,    1,    1,         9,      -3.3, 0, 0, 0, 0, 1, 1, 0
    16,  1, 1,    1,    1,       120,       6.3, 0, 0, 0, 0, 1, 1, 0
    17,  1, 1,    1,    1,        35,       6.9, 0, 0, 0, 0, 1, 1, 0
    18,  1, 1,    1,    1,        45,      13.4, 0, 0, 0, 0, 1, 1, 0
    20,  1, 1,    1,    1,      77.3,      29.1, 0, 0, 0, 0, 1, 1, 0
    21,  1, 1,    1,    1,      48.4,         4, 0, 0, 0, 0, 1, 1, 0
    22,  1, 1,    1,    1,       4.6,     -11.4, 0, 0, 0, 0, 1, 1, 0
    23,  1, 1,    1,    1,      33.3,      -5.7, 0, 0, 0, 0, 1, 1, 0
    25,  1, 1,    1,    1,        18,       5.6, 0, 0, 0, 0, 1, 1, 0
    26,  1, 1,    1,    1,         1,        -8, 0, 0, 0, 0, 1, 1, 0
    27,  1, 1,    1,    1,        22,      -5.6, 0, 0, 0, 0, 1, 1, 0
    28,  1, 1,    1,    1,      -2.1,      -0.1, 0, 0, 0, 0, 1, 1, 0
  2574,  1, 1,    1,    1,      39.1,        10, 0, 0, 0, 0, 1, 1, 0
    29,  1, 1,    1,    1,       7.1,      -2.6, 0, 0, 0, 0, 1, 1, 0
    30,  1, 1,    1,    1,       3.5,       -40, 0, 0, 0, 0, 1, 1, 0
    31,  1, 1,    1,    1,       7.7,      -1.8, 0, 0, 0, 0, 1, 1, 0
    32,  1, 1,    1,    1,      12.1,       2.1, 0, 0, 0, 0, 1, 1, 0
    33,  1, 1,    1,    1,       2.4,      -0.4, 0, 0, 0, 0, 1, 1, 0
    35,  1, 1,    1,    1,        26,       0.1, 0, 0, 0, 0, 1, 1, 0
    36,  1, 1,    1,    1,       0.7,      -4.1, 0, 0, 0, 0, 1, 1, 0
    37,  1, 1,    1,    1,       9.3,      -5.3, 0, 0, 0, 0, 1, 1, 0
    39,  1, 1,    1,    1,      78.4,      -4.8, 0, 0, 0, 0, 1, 1, 0
    40,  1, 1,    1,    1,      25.1,      -3.3, 0, 0, 0, 0, 1, 1, 0
    41,  1, 1,    1,    1,      80.4,       7.4, 0, 0, 0, 0, 1, 1, 0
    42,  1, 1,    1,    1,      37.8,       2.9, 0, 0, 0, 0, 1, 1, 0
    44,  1, 1,    1,    1,        29,       -10, 0, 0, 0, 0, 1, 1, 0
    45,  1, 1,    1,    1,      97.4,        -3, 0, 0, 0, 0, 1, 1, 0
    47,  1, 1,    1,    1,      21.3,      -2.6, 0, 0, 0, 0, 1, 1, 0
    48,  1, 1,    1,    1,      -0.3,       0.8, 0, 0, 0, 0, 1, 1, 0
    49,  1, 1,    1,    1,      11.6,       3.2, 0, 0, 0, 0, 1, 1, 0
  2576,  1, 1,    1,    1,       9.3,       4.7, 0, 0, 0, 0, 1, 1, 0
    51,  1, 1,    1,    1,      66.6,         0, 0, 0, 0, 0, 1, 1, 0
  2942,  1, 1,    1,    1,      53.9,      11.2, 0, 0, 0, 0, 1, 1, 0
    53,  1, 1,    1,    1,       7.9,      -4.7, 0, 0, 0, 0, 1, 1, 0
    55,  1, 1,    1,    1,      40.5,       8.5, 0, 0, 0, 0, 1, 1, 0
    57,  1, 1,    1,    1,      80.2,      -7.7, 0, 0, 0, 0, 1, 1, 0
    59,  1, 1,    1,    1,      35.3,      -9.2, 0, 0, 0, 0, 1, 1, 0
    60,  1, 1,    1,    1,      58.9,       2.6, 0, 0, 0, 0, 1, 1, 0
    61,  1, 1,    1,    1,       5.5,       1.7, 0, 0, 0, 0, 1, 1, 0
    62,  1, 1,    1,    1,       0.6,       0.7, 0, 0, 0, 0, 1, 1, 0
    63,  1, 1,    1,    1,      28.6,       4.1, 0, 0, 0, 0, 1, 1, 0
    64,  1, 1,    1,    1,      39.6,       9.4, 0, 0, 0, 0, 1, 1, 0
    66,  1, 1,    1,    1,      12.5,      -6.5, 0, 0, 0, 0, 1, 1, 0
    67,  1, 1,    1,    1,       0.4,       3.2, 0, 0, 0, 0, 1, 1, 0
  2579,  1, 1,    1,    1,      42.5,       7.2, 0, 0, 0, 0, 1, 1, 0
    68,  1, 1,    1,    1,       4.2,      -2.2, 0, 0, 0, 0, 1, 1, 0
    69,  1, 1,    1,    1,     139.3,       4.7, 0, 0, 0, 0, 1, 1, 0
    70,  1, 1,    1,    1,      83.7,      -8.3, 0, 0, 0, 0, 1, 1, 0
    75,  1, 1,    1,    1,      15.2,       5.4, 0, 0, 0, 0, 1, 1, 0
    77,  1, 1,    1,    1,       5.7,      -1.3, 0, 0, 0, 0, 1, 1, 0
    78,  1, 1,    1,    1,       7.8,       5.8, 0, 0, 0, 0, 1, 1, 0
    79,  1, 1,    1,    1,        14,      -4.6, 0, 0, 0, 0, 1, 1, 0
    80,  1, 1,    1,    1,       7.1,      -2.3, 0, 0, 0, 0, 1, 1, 0
    82,  1, 1,    1,    1,      59.6,        24, 0, 0, 0, 0, 1, 1, 0
    83,  1, 1,    1,    1,      27.8,      -7.5, 0, 0, 0, 0, 1, 1, 0
    84,  1, 1,    1,    1,      61.1,      -4.5, 0, 0, 0, 0, 1, 1, 0
    86,  1, 1,    1,    1,      31.8,         1, 0, 0, 0, 0, 1, 1, 0
    87,  1, 1,    1,    1,      22.8,      -0.9, 0, 0, 0, 0, 1, 1, 0
    88,  1, 1,    1,    1,       2.1,       0.8, 0, 0, 0, 0, 1, 1, 0
    89,  1, 1,    1,    1,      30.5,       6.3, 0, 0, 0, 0, 1, 1, 0
  2581,  1, 1,    1,    1,        32,      12.1, 0, 0, 0, 0, 1, 1, 0
    91,  1, 1,    1,    1,      89.3,     -15.7, 0, 0, 0, 0, 1, 1, 0
    92,  1, 1,    1,    1,       6.4,     -11.6, 0, 0, 0, 0, 1, 1, 0
    94,  1, 1,    1,    1,      37.7,      57.2, 0, 0, 0, 0, 1, 1, 0
  2583,  1, 1,    1,    1,      33.4,      -0.5, 0, 0, 0, 0, 1, 1, 0
    96,  1, 1,    1,    1,         9,       0.8, 0, 0, 0, 0, 1, 1, 0
    97,  1, 1,    1,    1,      35.8,       4.5, 0, 0, 0, 0, 1, 1, 0
    98,  1, 1,    1,    1,      16.5,      -8.7, 0, 0, 0, 0, 1, 1, 0
    99,  1, 1,    1,    1,      28.6,         5, 0, 0, 0, 0, 1, 1, 0
  2584,  1, 1,    1,    1,      14.5,       3.6, 0, 0, 0, 0, 1, 1, 0
   100,  1, 1,    1,    1,       7.3,      -5.1, 0, 0, 0, 0, 1, 1, 0
   101,  1, 1,    1,    1,       6.4,       2.5, 0, 0, 0, 0, 1, 1, 0
   104,  1, 1,    1,    1,      45.6,         7, 0, 0, 0, 0, 1, 1, 0
  2586,  1, 1,    1,    1,      19.1,       5.8, 0, 0, 0, 0, 1, 1, 0
   105,  1, 1,    1,    1,      10.1,      -0.9, 0, 0, 0, 0, 1, 1, 0
   107,  1, 1,    1,    1,       8.4,       3.5, 0, 0, 0, 0, 1, 1, 0
   108,  1, 1,    1,    1,      39.7,      -6.4, 0, 0, 0, 0, 1, 1, 0
   111,  1, 1,    1,    1,      62.2,     -16.1, 0, 0, 0, 0, 1, 1, 0
   112,  1, 1,    1,    1,       2.2,        -1, 0, 0, 0, 0, 1, 1, 0
  2588,  1, 1,    1,    1,      12.3,        -2, 0, 0, 0, 0, 1, 1, 0
   113,  1, 1,    1,    1,         5,      -3.8, 0, 0, 0, 0, 1, 1, 0
   114,  1, 1,    1,    1,        30,         0, 0, 0, 0, 0, 1, 1, 0
   115,  1, 1,    1,    1,      11.7,       1.8, 0, 0, 0, 0, 1, 1, 0
   116,  1, 1,    1,    1,      51.9,      15.9, 0, 0, 0, 0, 1, 1, 0
   117,  1, 1,    1,    1,       2.6,       0.2, 0, 0, 0, 0, 1, 1, 0
   118,  1, 1,    1,    1,        38,       3.1, 0, 0, 0, 0, 1, 1, 0
   119,  1, 1,    1,    1,        24,      -7.3, 0, 0, 0, 0, 1, 1, 0
   121,  1, 1,    1,    1,         8,       2.5, 0, 0, 0, 0, 1, 1, 0
  2589,  1, 1,    1,    1,       9.9,       3.5, 0, 0, 0, 0, 1, 1, 0
   122,  1, 1,    1,    1,      77.1,      -3.9, 0, 0, 0, 0, 1, 1, 0
   123,  1, 1,    1,    1,      21.2,       4.4, 0, 0, 0, 0, 1, 1, 0
   128,  1, 1,    1,    1,      17.1,       1.5, 0, 0, 0, 0, 1, 1, 0
   129,  1, 1,    1,    1,      18.2,      12.2, 0, 0, 0, 0, 1, 1, 0
   130,  1, 1,    1,    1,     -13.2,      16.1, 0, 0, 0, 0, 1, 1, 0
   132,  1, 1,    1,    1,      81.2,      18.3, 0, 0, 0, 0, 1, 1, 0
   133,  1, 1,    1,    1,       9.6,       3.3, 0, 0, 0, 0, 1, 1, 0
   135,  1, 1,    1,    1,      -8.9,      -4.4, 0, 0, 0, 0, 1, 1, 0
   136,  1, 1,    1,    1,     -10.6,      -2.1, 0, 0, 0, 0, 1, 1, 0
   137,  1, 1,    1,    1,      14.1,      -3.7, 0, 0, 0, 0, 1, 1, 0
   138,  1, 1,    1,    1,      11.3,      -2.7, 0, 0, 0, 0, 1, 1, 0
   139,  1, 1,    1,    1,       9.4,      -2.2, 0, 0, 0, 0, 1, 1, 0
   141,  1, 1,    1,    1,      11.1,       4.5, 0, 0, 0, 0, 1, 1, 0
   142,  1, 1,    1,    1,       7.2,       5.2, 0, 0, 0, 0, 1, 1, 0
   143,  1, 1,    1,    1,      20.9,      -1.3, 0, 0, 0, 0, 1, 1, 0
   144,  1, 1,    1,    1,      33.4,       6.5, 0, 0, 0, 0, 1, 1, 0
   145,  1, 1,    1,    1,      61.8,      -3.3, 0, 0, 0, 0, 1, 1, 0
  2592,  1, 1,    1,    1,      61.8,      10.2, 0, 0, 0, 0, 1, 1, 0
   151,  1, 1,    1,    1,       9.8,       4.5, 0, 0, 0, 0, 1, 1, 0
   153,  1, 1,    1,    1,      88.2,      -7.1, 0, 0, 0, 0, 1, 1, 0
   155,  1, 1,    1,    1,      23.8,     -12.3, 0, 0, 0, 0, 1, 1, 0
   156,  1, 1,    1,    1,      18.2,      -0.6, 0, 0, 0, 0, 1, 1, 0
   157,  1, 1,    1,    1,       0.4,       0.2, 0, 0, 0, 0, 1, 1, 0
   158,  1, 1,    1,    1,      18.7,      -2.5, 0, 0, 0, 0, 1, 1, 0
   159,  1, 1,    1,    1,      19.2,        -1, 0, 0, 0, 0, 1, 1, 0
   160,  1, 1,    1,    1,         4,       0.2, 0, 0, 0, 0, 1, 1, 0
   162,  1, 1,    1,    1,       2.8,       3.9, 0, 0, 0, 0, 1, 1, 0
   164,  1, 1,    1,    1,      68.7,     -27.8, 0, 0, 0, 0, 1, 1, 0
   165,  1, 1,    1,    1,      70.9,      -7.8, 0, 0, 0, 0, 1, 1, 0
   166,  1, 1,    1,    1,      35.7,       1.2, 0, 0, 0, 0, 1, 1, 0
   167,  1, 1,    1,    1,      66.9,      15.7, 0, 0, 0, 0, 1, 1, 0
   168,  1, 1,    1,    1,      10.2,      -5.9, 0, 0, 0, 0, 1, 1, 0
   169,  1, 1,    1,    1,      22.5,      -8.3, 0, 0, 0, 0, 1, 1, 0
   170,  1, 1,    1,    1,       3.1,       1.2, 0, 0, 0, 0, 1, 1, 0
   171,  1, 1,    1,    1,     103.9,      36.4, 0, 0, 0, 0, 1, 1, 0
   173,  1, 1,    1,    1,      46.9,     -16.3, 0, 0, 0, 0, 1, 1, 0
   175,  1, 1,    1,    1,      83.4,     -19.9, 0, 0, 0, 0, 1, 1, 0
   180,  1, 1,    1,    1,      -0.3,      -5.1, 0, 0, 0, 0, 1, 1, 0
   181,  1, 1,    1,    1,      -0.2,      -8.9, 0, 0, 0, 0, 1, 1, 0
   185,  1, 1,    1,    1,      12.8,      -5.2, 0, 0, 0, 0, 1, 1, 0
   186,  1, 1,    1,    1,      -3.5,      -3.5, 0, 0, 0, 0, 1, 1, 0
   190,  1, 1,    1,    1,       8.4,     -10.3, 0, 0, 0, 0, 1, 1, 0
   191,  1, 1,    1,    1,      34.1,      -3.5, 0, 0, 0, 0, 1, 1, 0
   192,  1, 1,    1,    1,      29.2,       4.5, 0, 0, 0, 0, 1, 1, 0
   193,  1, 1,    1,    1,      11.4,       4.2, 0, 0, 0, 0, 1, 1, 0
   197,  1, 1,    1,    1,       3.7,      13.7, 0, 0, 0, 0, 1, 1, 0
   199,  1, 1,    1,    1,     152.4,       6.2, 0, 0, 0, 0, 1, 1, 0
   200,  1, 1,    1,    1,      29.9,         3, 0, 0, 0, 0, 1, 1, 0
  2598,  1, 1,    1,    1,        35,       3.5, 0, 0, 0, 0, 1, 1, 0
   201,  1, 1,    1,    1,      24.1,     -16.4, 0, 0, 0, 0, 1, 1, 0
   203,  1, 1,    1,    1,      36.8,       5.3, 0, 0, 0, 0, 1, 1, 0
   204,  1, 1,    1,    1,      20.4,      -4.2, 0, 0, 0, 0, 1, 1, 0
   207,  1, 1,    1,    1,       6.2,       2.7, 0, 0, 0, 0, 1, 1, 0
   208,  1, 1,    1,    1,       9.6,         1, 0, 0, 0, 0, 1, 1, 0
   209,  1, 1,    1,    1,      25.7,     -12.7, 0, 0, 0, 0, 1, 1, 0
   211,  1, 1,    1,    1,      26.5,      -2.3, 0, 0, 0, 0, 1, 1, 0
   215,  1, 1,    1,    1,       1.5,        -0, 0, 0, 0, 0, 1, 1, 0
   216,  1, 1,    1,    1,     101.1,      -8.8, 0, 0, 0, 0, 1, 1, 0
   219,  1, 1,    1,    1,      17.3,       3.3, 0, 0, 0, 0, 1, 1, 0
   221,  1, 1,    1,    1,      21.6,      -6.3, 0, 0, 0, 0, 1, 1, 0
   224,  1, 1,    1,    1,      60.6,      -5.7, 0, 0, 0, 0, 1, 1, 0
   227,  1, 1,    1,    1,       6.2,       7.3, 0, 0, 0, 0, 1, 1, 0
   232,  1, 1,    1,    1,      11.4,       0.6, 0, 0, 0, 0, 1, 1, 0
  2603,  1, 1,    1,    1,         9,       0.1, 0, 0, 0, 0, 1, 1, 0
   234,  1, 1,    1,    1,       1.2,      -0.9, 0, 0, 0, 0, 1, 1, 0
  2604,  1, 1,    1,    1,      37.3,      -0.1, 0, 0, 0, 0, 1, 1, 0
   236,  1, 1,    1,    1,      26.3,       1.1, 0, 0, 0, 0, 1, 1, 0
   237,  1, 1,    1,    1,      13.4,      -0.3, 0, 0, 0, 0, 1, 1, 0
   238,  1, 1,    1,    1,      34.2,       0.7, 0, 0, 0, 0, 1, 1, 0
   241,  1, 1,    1,    1,       9.9,       3.2, 0, 0, 0, 0, 1, 1, 0
   242,  1, 1,    1,    1,      29.3,         2, 0, 0, 0, 0, 1, 1, 0
   243,  1, 1,    1,    1,      94.1,      -4.7, 0, 0, 0, 0, 1, 1, 0
   244,  1, 1,    1,    1,      31.6,       4.2, 0, 0, 0, 0, 1, 1, 0
   245,  1, 1,    1,    1,      20.3,       9.9, 0, 0, 0, 0, 1, 1, 0
   247,  1, 1,    1,    1,         6,      -0.9, 0, 0, 0, 0, 1, 1, 0
   248,  1, 1,    1,    1,      17.4,       1.8, 0, 0, 0, 0, 1, 1, 0
   249,  1, 1,    1,    1,       9.4,      -0.6, 0, 0, 0, 0, 1, 1, 0
   250,  1, 1,    1,    1,       4.2,       1.9, 0, 0, 0, 0, 1, 1, 0
   251,  1, 1,    1,    1,      62.1,      20.2, 0, 0, 0, 0, 1, 1, 0
   252,  1, 1,    1,    1,       5.5,       4.5, 0, 0, 0, 0, 1, 1, 0
   253,  1, 1,    1,    1,      -2.8,      -1.5, 0, 0, 0, 0, 1, 1, 0
   254,  1, 1,    1,    1,      -2.8,      -1.4, 0, 0, 0, 0, 1, 1, 0
   255,  1, 1,    1,    1,       8.3,      -7.3, 0, 0, 0, 0, 1, 1, 0
   258,  1, 1,    1,    1,      19.3,      -3.2, 0, 0, 0, 0, 1, 1, 0
   261,  1, 1,    1,    1,        50,       4.4, 0, 0, 0, 0, 1, 1, 0
   262,  1, 1,    1,    1,      13.9,      -2.1, 0, 0, 0, 0, 1, 1, 0
   263,  1, 1,    1,    1,        19,       1.9, 0, 0, 0, 0, 1, 1, 0
  2616,  1, 1,    1,    1,      17.5,      -0.7, 0, 0, 0, 0, 1, 1, 0
  2617,  1, 1,    1,    1,      10.8,      -3.5, 0, 0, 0, 0, 1, 1, 0
   264,  1, 1,    1,    1,       134,      -1.7, 0, 0, 0, 0, 1, 1, 0
   265,  1, 1,    1,    1,      15.2,      -2.7, 0, 0, 0, 0, 1, 1, 0
   268,  1, 1,    1,    1,      15.8,      -8.1, 0, 0, 0, 0, 1, 1, 0
   269,  1, 1,    1,    1,      28.5,       3.5, 0, 0, 0, 0, 1, 1, 0
   270,  1, 1,    1,    1,      59.2,        -3, 0, 0, 0, 0, 1, 1, 0
   272,  1, 1,    1,    1,      40.2,       1.2, 0, 0, 0, 0, 1, 1, 0
   273,  1, 1,    1,    1,      15.7,      -9.2, 0, 0, 0, 0, 1, 1, 0
   276,  1, 1,    1,    1,       9.7,      -2.8, 0, 0, 0, 0, 1, 1, 0
   277,  1, 1,    1,    1,      11.5,        -2, 0, 0, 0, 0, 1, 1, 0
   279,  1, 1,    1,    1,      15.4,      -1.6, 0, 0, 0, 0, 1, 1, 0
   281,  1, 1,    1,    1,      32.8,      -2.2, 0, 0, 0, 0, 1, 1, 0
   282,  1, 1,    1,    1,      54.5,       4.4, 0, 0, 0, 0, 1, 1, 0
   286,  1, 1,    1,    1,     158.8,      28.8, 0, 0, 0, 0, 1, 1, 0
...
0 / END OF LOAD DATA, BEGIN FIXED SHUNT DATA
     9, 1, 1,       0,     -21
  2966, 1, 1,       0,     -64
    58, 1, 1,       0,     -64
    74, 1, 1,       0,     -80
  2586, 1, 1,       0,     -80
   176, 1, 1,       0,     -64
   347, 1, 1,       0,     -64
  2640, 1, 1,       0,     -64
  2943, 1, 1,       0,     -58
  2944, 1, 1,       0,     -58
  2945, 1, 1,       0,     -58
   407, 1, 1,       0,     -64
   450, 1, 1,       0,     -80
   479, 1, 1,       0,     -80
   557, 1, 1,       0,     -64
   585, 1, 1,       0,     -64
   611, 1, 1,       0,     -64
  2968, 1, 1,       0,     -64
   727, 1, 1,       0,     -64
   784, 1, 1,       0,     -64
   908, 1, 1,       0,     -64
   997, 1, 1,       0,     -64
  1013, 1, 1,       0,     -64
  1021, 1, 1,       0,     -64
  1050, 1, 1,       0,    -214
  1096, 1, 1,       0,     -60
  3001, 1, 1,       0,     -60
  1111, 1, 1,       0,     -80
  1118, 1, 1,       0,     -64
  2951, 1, 1,       0,     -64
  1171, 1, 1,       0,     -80
  1322, 1, 1,       0,     -60
  2971, 1, 1,       0,     -60
  1430, 1, 1,       0,     -31
  1431, 1, 1,       0,     -80
  1452, 1, 1,       0,     -64
  1501, 1, 1,       0,     -58
  1513, 1, 1,       0,     -64
  2972, 1, 1,       0,     -64
  1524, 1, 1,       0,     -64
  1537, 1, 1,       0,     -64
  1738, 1, 1,       0,     -54
  1819, 1, 1,       0,     -64
  2953, 1, 1,       0,     -60
  2954, 1, 1,       0,     -58
  2980, 1, 1,       0,     -58
  2974, 1, 1,       0,     -64
  2975, 1, 1,       0,     -60
0 / END OF FIXED SHUNT DATA, BEGIN GENERATOR DATA
  1279,  1,         7,     -0.13,        15,       -15,    1.037, 0,     100, 0, 1, 0, 0, 1, 1, 100,        35,         7, 1, 1, 0, 1, 0, 1, 0, 1, 0, 1
  1210,  1,     20.27,     -0.32,        20,       -15,    1.059, 0,     100, 0, 1, 0, 0, 1, 1, 100,      36.1,      7.22, 1, 1, 0, 1, 0, 1, 0, 1, 0, 1
   751,  1,        44,     -0.21,        21,        -9,     1.01, 0,     100, 0, 1, 0, 0, 1, 1, 100,        46,       9.2, 1, 1, 0, 1, 0, 1, 0, 1, 0, 1
   978,  1,      2.18,        -0,       0.1,      -0.1,    1.071, 0,     100, 0, 1, 0, 0, 1, 1, 100,         4,         0, 1, 1, 0, 1, 0, 1, 0, 1, 0, 1
   978,  2,         6,       0.9,         1,       0.9,    1.071, 0,     100, 0, 1, 0, 0, 1, 1, 100,         7,       1.4, 1, 1, 0, 1, 0, 1, 0, 1, 0, 1
   158,  1,      -0.1,         0,         0,         0,    1.024, 0,     100, 0, 1, 0, 0, 1, 1, 100,       2.7,         0, 1, 1, 0, 1, 0, 1, 0, 1, 0, 1
  1217,  1,     11.99,     -0.82,         5,        -5,    1.053, 0,     100, 0, 1, 0, 0, 1, 1, 100,        13,       2.6, 1, 1, 0, 1, 0, 1, 0, 1, 0, 1
   367,  1,     27.57,     -0.61,        27,        -9,    1.036, 0,     100, 0, 1, 0, 0, 1, 1, 100,        50,        10, 1, 1, 0, 1, 0, 1, 0, 1, 0, 1
  1127,  1,     -0.66,         0,         0,         0,    1.033, 0,     100, 0, 1, 0, 0, 1, 1, 100,        16,       3.2, 1, 1, 0, 1, 0, 1, 0, 1, 0, 1
   460,  1,      12.4,      -1.2,        40,       -40,    1.077, 0,     100, 0, 1, 0, 0, 1, 1, 100,        62,      12.4, 1, 1, 0, 1, 0, 1, 0, 1, 0, 1
   968,  1,     15.38,     -0.05,        10,       -10,     1.07, 0,     100, 0, 1, 0, 0, 1, 1, 100,        18,       3.6, 1, 1, 0, 1, 0, 1, 0, 1, 0, 1
  1827,  1,        21,     -0.19,         7,       -12,     1.05, 0,     100, 0, 1, 0, 0, 1, 1, 100,        22,       4.4, 1, 1, 0, 1, 0, 1, 0, 1, 0, 1
  1466,  1,     37.99,     -0.02,         5,       -15,     1.07, 0,     100, 0, 1, 0, 0, 1, 1, 100,        40,         1, 1, 1, 0, 1, 0, 1, 0, 1, 0, 1
  2863,  1,     15.76,     -0.03,         6,        -6,    1.015, 0,     100, 0, 1, 0, 0, 1, 1, 100,        40,         1, 1, 1, 0, 1, 0, 1, 0, 1, 0, 1
  1466,  2,     37.99,     -0.02,         5,       -15,     1.07, 0,     100, 0, 1, 0, 0, 1, 1, 100,        40,         1, 1, 1, 0, 1, 0, 1, 0, 1, 0, 1
  2863,  2,     15.76,     -0.03,         6,        -6,    1.015, 0,     100, 0, 1, 0, 0, 1, 1, 100,        40,         1, 1, 1, 0, 1, 0, 1, 0, 1, 0, 1
  1072,  1,      4.88,       0.9,         1,       0.9,     1.08, 0,     100, 0, 1, 0, 0, 1, 1, 100,        12,       2.4, 1, 1, 0, 1, 0, 1, 0, 1, 0, 1
  1072,  2,         0,         0,         1,       0.9,     1.08, 0,     100, 0, 1, 0, 0, 1, 0, 100,        14,       2.8, 1, 1, 0, 1, 0, 1, 0, 1, 0, 1
  1072,  3,      4.88,       0.9,         1,       0.9,     1.08, 0,     100, 0, 1, 0, 0, 1, 1, 100,        12,       2.4, 1, 1, 0, 1, 0, 1, 0, 1, 0, 1
   642,  1,     -0.62,      0.22,         3,        -3,    1.013, 0,     100, 0, 1, 0, 0, 1, 1, 100,     10.33,      2.07, 1, 1, 0, 1, 0, 1, 0, 1, 0, 1
   642,  2,     -0.22,      0.22,         3,        -3,    1.013, 0,     100, 0, 1, 0, 0, 1, 1, 100,     10.33,      2.07, 1, 1, 0, 1, 0, 1, 0, 1, 0, 1
   542,  1,         5,     -0.85,        22,       -10,    1.011, 0,     100, 0, 1, 0, 0, 1, 1, 100,        50,         5, 1, 1, 0, 1, 0, 1, 0, 1, 0, 1
   773,  1,      0.94,         0,         0,         0,    1.039, 0,     100, 0, 1, 0, 0, 1, 1, 100,        12,       2.4, 1, 1, 0, 1, 0, 1, 0, 1, 0, 1
   399,  1,      3.81,         0,         0,         0,     1.05, 0,     100, 0, 1, 0, 0, 1, 1, 100,      13.8,      2.76, 1, 1, 0, 1, 0, 1, 0, 1, 0, 1
   399,  2,     -0.18,         0,         0,         0,     1.05, 0,     100, 0, 1, 0, 0, 1, 1, 100,       1.2,         0, 1, 1, 0, 1, 0, 1, 0, 1, 0, 1
    21,  1,     18.33,         0,         0,         0,    1.026, 0,     100, 0, 1, 0, 0, 1, 1, 100,        24,       4.8, 1, 1, 0, 1, 0, 1, 0, 1, 0, 1
    21,  2,     21.59,         0,         0,         0,    1.026, 0,     100, 0, 1, 0, 0, 1, 1, 100,      27.6,      5.52, 1, 1, 0, 1, 0, 1, 0, 1, 0, 1
   899,  1,     12.18,         0,         0,         0,    1.057, 0,     100, 0, 1, 0, 0, 1, 1, 100,        18,       3.6, 1, 1, 0, 1, 0, 1, 0, 1, 0, 1
   899,  2,     15.21,         0,         0,         0,    1.057, 0,     100, 0, 1, 0, 0, 1, 1, 100,        21,       4.2, 1, 1, 0, 1, 0, 1, 0, 1, 0, 1
  2618,  1,       1.2,         0,         0,         0,    1.054, 0,     100, 0, 1, 0, 0, 1, 1, 100,         6,       1.2, 1, 1, 0, 1, 0, 1, 0, 1, 0, 1
  2618,  2,     11.71,     -0.11,        10,        -6,    1.054, 0,     100, 0, 1, 0, 0, 1, 1, 100,      37.5,       7.5, 1, 1, 0, 1, 0, 1, 0, 1, 0, 1
   285,  1,       1.2,         0,         0,         0,    1.058, 0,     100, 0, 1, 0, 0, 1, 1, 100,         6,       1.2, 1, 1, 0, 1, 0, 1, 0, 1, 0, 1
   285,  2,     35.99,     -0.12,        10,        -6,    1.058, 0,     100, 0, 1, 0, 0, 1, 1, 100,      37.5,       7.5, 1, 1, 0, 1, 0, 1, 0, 1, 0, 1
   135,  1,     10.32,     -0.01,         5,        -6,    1.066, 0,     100, 0, 1, 0, 0, 1, 1, 100,        13,       2.6, 1, 1, 0, 1, 0, 1, 0, 1, 0, 1
    53,  1,       3.6,        -0,       0.8,      -0.8,     1.05, 0,     100, 0, 1, 0, 0, 1, 1, 100,        18,       3.6, 1, 1, 0, 1, 0, 1, 0, 1, 0, 1
    53,  2,        17,        -0,       0.8,      -0.8,     1.05, 0,     100, 0, 1, 0, 0, 1, 1, 100,        18,       3.6, 1, 1, 0, 1, 0, 1, 0, 1, 0, 1
   596,  1,      2.26,         0,         0,         0,    1.037, 0,     100, 0, 1, 0, 0, 1, 1, 100,         4,         0, 1, 1, 0, 1, 0, 1, 0, 1, 0, 1
   958,  1,      1.09,         0,         0,         0,    1.047, 0,     100, 0, 1, 0, 0, 1, 1, 100,       4.6,         0, 1, 1, 0, 1, 0, 1, 0, 1, 0, 1
  1679,  1,     19.98,     -0.03,         6,        -4,    1.058, 0,     100, 0, 1, 0, 0, 1, 1, 100,        21,       4.2, 1, 1, 0, 1, 0, 1, 0, 1, 0, 1
  1679,  2,      5.46,     -0.04,       6.7,      -4.5,    1.058, 0,     100, 0, 1, 0, 0, 1, 1, 100,        21,       4.2, 1, 1, 0, 1, 0, 1, 0, 1, 0, 1
  1157,  1,     -0.71,         0,         0,         0,    1.007, 0,     100, 0, 1, 0, 0, 1, 1, 100,       7.2,      1.44, 1, 1, 0, 1, 0, 1, 0, 1, 0, 1
   513,  1,        10,         1,         5,         1,    1.024, 0,     100, 0, 1, 0, 0, 1, 1, 100,        11,       2.2, 1, 1, 0, 1, 0, 1, 0, 1, 0, 1
   513,  2,        10,         1,         5,         1,    1.024, 0,     100, 0, 1, 0, 0, 1, 1, 100,        11,       2.2, 1, 1, 0, 1, 0, 1, 0, 1, 0, 1
   371,  1,         6,     -0.04,         5,        -5,    1.055, 0,     100, 0, 1, 0, 0, 1, 1, 100,         8,       1.6, 1, 1, 0, 1, 0, 1, 0, 1, 0, 1
   371,  2,      1.61,     -0.04,         5,        -5,    1.055, 0,     100, 0, 1, 0, 0, 1, 1, 100,         8,       1.6, 1, 1, 0, 1, 0, 1, 0, 1, 0, 1
   976,  1,     14.97,     -0.08,        12,       -15,    1.046, 0,     100, 0, 1, 0, 0, 1, 1, 100,        35,         7, 1, 1, 0, 1, 0, 1, 0, 1, 0, 1
   976,  2,      7.85,     -0.08,        12,       -15,    1.046, 0,     100, 0, 1, 0, 0, 1, 1, 100,        35,         7, 1, 1, 0, 1, 0, 1, 0, 1, 0, 1
  2754,  1,     -0.64,         0,         0,         0,    1.029, 0,     100, 0, 1, 0, 0, 1, 1, 100,      11.5,       2.3, 1, 1, 0, 1, 0, 1, 0, 1, 0, 1
   749,  1,      7.69,     -0.23,         5,        -5,        1, 0,     100, 0, 1, 0, 0, 1, 1, 100,       8.5,       1.7, 1, 1, 0, 1, 0, 1, 0, 1, 0, 1
  1188,  1,        19,       1.9,         2,       1.9,    1.077, 0,     100, 0, 1, 0, 0, 1, 1, 100,        20,         4, 1, 1, 0, 1, 0, 1, 0, 1, 0, 1
  1254,  1,      4.57,     -4.14,         7,        -7,    1.024, 0,     100, 0, 1, 0, 0, 1, 1, 100,        24,       4.8, 1, 1, 0, 1, 0, 1, 0, 1, 0, 1
   252,  1,      2.21,     -0.59,         8,        -5,    0.998, 0,     100, 0, 1, 0, 0, 1, 1, 100,        11,       2.2, 1, 1, 0, 1, 0, 1, 0, 1, 0, 1
   252,  2,      3.59,     -0.33,         6,        -5,    0.998, 0,     100, 0, 1, 0, 0, 1, 1, 100,         9,       1.8, 1, 1, 0, 1, 0, 1, 0, 1, 0, 1
   252,  3,      2.51,     -0.59,         8,        -5,    0.998, 0,     100, 0, 1, 0, 0, 1, 1, 100,        11,       2.2, 1, 1, 0, 1, 0, 1, 0, 1, 0, 1
   252,  4,      3.67,     -0.33,         6,        -5,    0.998, 0,     100, 0, 1, 0, 0, 1, 1, 100,         9,       1.8, 1, 1, 0, 1, 0, 1, 0, 1, 0, 1
   504,  1,     10.92,      -0.1,       6.5,      -6.5,    0.983, 0,     100, 0, 1, 0, 0, 1, 1, 100,      12.4,      2.48, 1, 1, 0, 1, 0, 1, 0, 1, 0, 1
   115,  1,     10.69,         0,         0,         0,     1.03, 0,     100, 0, 1, 0, 0, 1, 1, 100,      25.3,      5.06, 1, 1, 0, 1, 0, 1, 0, 1, 0, 1
   967,  1,     -1.06,         0,         0,         0,     1.07, 0,     100, 0, 1, 0, 0, 1, 1, 100,       2.3,         0, 1, 1, 0, 1, 0, 1, 0, 1, 0, 1
  1642,  1,         2,     -0.02,         1,        -1,    1.035, 0,     100, 0, 1, 0, 0, 1, 1, 100,         3,         0, 1, 1, 0, 1, 0, 1, 0, 1, 0, 1
  1811,  1,       2.7,     -0.03,       5.5,      -5.5,     1.03, 0,     100, 0, 1, 0, 0, 1, 1, 100,         9,       1.8, 1, 1, 0, 1, 0, 1, 0, 1, 0, 1
  2634,  1,      11.1,     -0.02,         7,        -7,     1.06, 0,     100, 0, 1, 0, 0, 1, 1, 100,        14,       2.8, 1, 1, 0, 1, 0, 1, 0, 1, 0, 1
   326,  1,     12.95,     -0.02,         7,        -7,     1.06, 0,     100, 0, 1, 0, 0, 1, 1, 100,        14,       2.8, 1, 1, 0, 1, 0, 1, 0, 1, 0, 1
  1829,  1,     11.99,     -0.05,       7.7,      -7.7,     1.03, 0,     100, 0, 1, 0, 0, 1, 1, 100,      12.8,      2.56, 1, 1, 0, 1, 0, 1, 0, 1, 0, 1
  1314,  1,     25.63,     -0.12,        19,       -19,    1.084, 0,     100, 0, 1, 0, 0, 1, 1, 100,        39,       7.8, 1, 1, 0, 1, 0, 1, 0, 1, 0, 1
    71,  1,     13.35,     -0.04,        10,        -4,    1.079, 0,     100, 0, 1, 0, 0, 1, 1, 100,        30,         6, 1, 1, 0, 1, 0, 1, 0, 1, 0, 1
    93,  1,      3.14,       1.9,         2,       1.9,    1.078, 0,     100, 0, 1, 0, 0, 1, 1, 100,         6,       1.2, 1, 1, 0, 1, 0, 1, 0, 1, 0, 1
   129,  1,      6.89,     -0.02,         4,        -4,    1.029, 0,     100, 0, 1, 0, 0, 1, 1, 100,        11,       2.2, 1, 1, 0, 1, 0, 1, 0, 1, 0, 1
  1594,  1,       2.4,     -0.82,         5,        -5,    1.052, 0,     100, 0, 1, 0, 0, 1, 1, 100,        12,       2.4, 1, 1, 0, 1, 0, 1, 0, 1, 0, 1
  1594,  2,       2.4,     -0.82,         5,        -5,    1.052, 0,     100, 0, 1, 0, 0, 1, 1, 100,        12,       2.4, 1, 1, 0, 1, 0, 1, 0, 1, 0, 1
  1354,  1,      2.16,     -0.08,         2,        -2,    1.032, 0,     100, 0, 1, 0, 0, 1, 1, 100,         5,         0, 1, 1, 0, 1, 0, 1, 0, 1, 0, 1
  1133,  1,     -0.88,         0,         0,         0,    1.027, 0,     100, 0, 1, 0, 0, 1, 1, 100,     17.25,      3.45, 1, 1, 0, 1, 0, 1, 0, 1, 0, 1
  1405,  1,     15.65,      -0.1,        12,        -8,    1.032, 0,     100, 0, 1, 0, 0, 1, 1, 100,      37.8,      7.56, 1, 1, 0, 1, 0, 1, 0, 1, 0, 1
  2850,  1,      15.8,      -0.1,        12,        -8,    1.032, 0,     100, 0, 1, 0, 0, 1, 1, 100,      37.8,      7.56, 1, 1, 0, 1, 0, 1, 0, 1, 0, 1
  2849,  1,     15.02,     -0.11,        12,        -8,    1.032, 0,     100, 0, 1, 0, 0, 1, 1, 100,      37.8,      7.56, 1, 1, 0, 1, 0, 1, 0, 1, 0, 1
  1122,  1,      0.89,         0,         0,         0,    1.037, 0,     100, 0, 1, 0, 0, 1, 1, 100,       6.9,      1.38, 1, 1, 0, 1, 0, 1, 0, 1, 0, 1
  1708,  1,     44.49,     -0.74,        27,        -9,    1.039, 0,     100, 0, 1, 0, 0, 1, 1, 100,        45,        44, 1, 1, 0, 1, 0, 1, 0, 1, 0, 1
  1708,  2,     44.49,     -0.74,        27,        -9,    1.039, 0,     100, 0, 1, 0, 0, 1, 1, 100,        45,        44, 1, 1, 0, 1, 0, 1, 0, 1, 0, 1
  1658,  1,      1.67,         0,         0,         0,    1.042, 0,     100, 0, 1, 0, 0, 1, 1, 100,      29.9,      5.98, 1, 1, 0, 1, 0, 1, 0, 1, 0, 1
  2884,  1,      4.54,         0,         0,         0,    1.045, 0,     100, 0, 1, 0, 0, 1, 1, 100,      13.7,      2.74, 1, 1, 0, 1, 0, 1, 0, 1, 0, 1
  1154,  1,     15.21,         0,         0,         0,    1.036, 0,     100, 0, 1, 0, 0, 1, 1, 100,      20.8,      4.16, 1, 1, 0, 1, 0, 1, 0, 1, 0, 1
   231,  1,      1.66,     -0.17,       8.3,      -8.3,     1.04, 0,     100, 0, 1, 0, 0, 1, 1, 100,       8.3,      1.66, 1, 1, 0, 1, 0, 1, 0, 1, 0, 1
  2887,  1,      11.2,     -0.03,         7,        -3,    1.021, 0,     100, 0, 1, 0, 0, 1, 1, 100,      23.7,      4.74, 1, 1, 0, 1, 0, 1, 0, 1, 0, 1
  2888,  1,      4.74,     -0.03,         7,        -3,    1.021, 0,     100, 0, 1, 0, 0, 1, 1, 100,      23.7,      4.74, 1, 1, 0, 1, 0, 1, 0, 1, 0, 1
  2889,  1,     11.28,     -0.03,         7,        -3,    1.021, 0,     100, 0, 1, 0, 0, 1, 1, 100,      23.7,      4.74, 1, 1, 0, 1, 0, 1, 0, 1, 0, 1
  1666,  1,     11.29,     -0.03,         7,        -3,    1.021, 0,     100, 0, 1, 0, 0, 1, 1, 100,      23.7,      4.74, 1, 1, 0, 1, 0, 1, 0, 1, 0, 1
   499,  1,      14.8,       0.9,         1,       0.9,    1.114, 0,     100, 0, 1, 0, 0, 1, 1, 100,        17,       3.4, 1, 1, 0, 1, 0, 1, 0, 1, 0, 1
   499,  2,         0,         0,         1,       0.9,    1.114, 0,     100, 0, 1, 0, 0, 1, 0, 100,         7,       1.4, 1, 1, 0, 1, 0, 1, 0, 1, 0, 1
   499,  3,       3.4,       0.9,         1,       0.9,    1.114, 0,     100, 0, 1, 0, 0, 1, 1, 100,        17,       3.4, 1, 1, 0, 1, 0, 1, 0, 1, 0, 1
  2709,  1,     10.44,     -0.01,         4,        -4,     1.01, 0,     100, 0, 1, 0, 0, 1, 1, 100,        24,       4.8, 1, 1, 0, 1, 0, 1, 0, 1, 0, 1
   709,  1,     13.46,     -0.01,         4,        -4,     1.01, 0,     100, 0, 1, 0, 0, 1, 1, 100,        24,       4.8, 1, 1, 0, 1, 0, 1, 0, 1, 0, 1
  2710,  1,      4.81,     -0.01,         4,        -4,     1.01, 0,     100, 0, 1, 0, 0, 1, 1, 100,        24,       4.8, 1, 1, 0, 1, 0, 1, 0, 1, 0, 1
  2708,  1,      7.56,     -0.01,         4,        -4,     1.01, 0,     100, 0, 1, 0, 0, 1, 1, 100,        24,       4.8, 1, 1, 0, 1, 0, 1, 0, 1, 0, 1
  1280,  1,     15.18,         0,         0,         0,    1.039, 0,     100, 0, 1, 0, 0, 1, 1, 100,        18,       3.6, 1, 1, 0, 1, 0, 1, 0, 1, 0, 1
  1493,  1,         0,         0,        11,       -11,    0.998, 0,     100, 0, 1, 0, 0, 1, 0, 100,        18,       3.6, 1, 1, 0, 1, 0, 1, 0, 1, 0, 1
   745,  1,      9.98,     -0.05,         8,       -18,     1.02, 0,     100, 0, 1, 0, 0, 1, 1, 100,        29,       5.8, 1, 1, 0, 1, 0, 1, 0, 1, 0, 1
  2727,  1,     12.62,     -0.02,         5,       -18,    1.029, 0,     100, 0, 1, 0, 0, 1, 1, 100,        29,       5.8, 1, 1, 0, 1, 0, 1, 0, 1, 0, 1
  1445,  1,     39.55,         0,         0,         0,    1.026, 0,     100, 0, 1, 0, 0, 1, 1, 100,        55,        11, 1, 1, 0, 1, 0, 1, 0, 1, 0, 1
   564,  1,     -0.83,         0,         0,         0,     1.01, 0,     100, 0, 1, 0, 0, 1, 1, 100,        10,         2, 1, 1, 0, 1, 0, 1, 0, 1, 0, 1
  1047,  1,     -0.34,         0,         0,         0,    1.038, 0,     100, 0, 1, 0, 0, 1, 1, 100,        12,       2.4, 1, 1, 0, 1, 0, 1, 0, 1, 0, 1
  1047,  2,      -0.6,         0,         0,         0,    1.038, 0,     100, 0, 1, 0, 0, 1, 1, 100,         2,         0, 1, 1, 0, 1, 0, 1, 0, 1, 0, 1
  1335,  1,      0.31,     -0.01,         3,        -1,     1.03, 0,     100, 0, 1, 0, 0, 1, 1, 100,         2,         0, 1, 1, 0, 1, 0, 1, 0, 1, 0, 1
  2624,  1,     14.33,     -0.15,        15,       -17,     1.07, 0,     100, 0, 1, 0, 0, 1, 1, 100,        31,       6.2, 1, 1, 0, 1, 0, 1, 0, 1, 0, 1
   298,  1,        29,     -0.16,        15,       -17,     1.06, 0,     100, 0, 1, 0, 0, 1, 1, 100,        31,       6.2, 1, 1, 0, 1, 0, 1, 0, 1, 0, 1
   298,  2,        29,     -0.16,        15,       -17,     1.06, 0,     100, 0, 1, 0, 0, 1, 1, 100,        31,       6.2, 1, 1, 0, 1, 0, 1, 0, 1, 0, 1
  2625,  1,        29,     -0.16,        15,       -17,     1.06, 0,     100, 0, 1, 0, 0, 1, 1, 100,        31,       6.2, 1, 1, 0, 1, 0, 1, 0, 1, 0, 1
  2625,  2,        29,     -0.16,        15,       -17,     1.06, 0,     100, 0, 1, 0, 0, 1, 1, 100,        31,       6.2, 1, 1, 0, 1, 0, 1, 0, 1, 0, 1
  2624,  2,     28.64,     -0.15,        15,       -17,     1.07, 0,     100, 0, 1, 0, 0, 1, 1, 100,        31,       6.2, 1, 1, 0, 1, 0, 1, 0, 1, 0, 1
  2947,  1,     10.93,     -0.01,         0,     -0.01,    1.029, 0,     100, 0, 1, 0, 0, 1, 1, 100,        24,       4.8, 1, 1, 0, 1, 0, 1, 0, 1, 0, 1
  2718,  1,      4.81,     -0.05,         8,        -7,    1.029, 0,     100, 0, 1, 0, 0, 1, 1, 100,        24,       4.8, 1, 1, 0, 1, 0, 1, 0, 1, 0, 1
  2720,  1,       4.8,     -0.05,         8,        -7,    1.029, 0,     100, 0, 1, 0, 0, 1, 1, 100,        24,       4.8, 1, 1, 0, 1, 0, 1, 0, 1, 0, 1
   741,  1,     10.85,     -0.05,         8,        -7,    1.029, 0,     100, 0, 1, 0, 0, 1, 1, 100,        24,       4.8, 1, 1, 0, 1, 0, 1, 0, 1, 0, 1
  2719,  1,      6.96,     -0.05,         8,        -7,    1.029, 0,     100, 0, 1, 0, 0, 1, 1, 100,        24,       4.8, 1, 1, 0, 1, 0, 1, 0, 1, 0, 1
  2721,  1,     11.54,     -0.05,         8,        -7,    1.029, 0,     100, 0, 1, 0, 0, 1, 1, 100,        24,       4.8, 1, 1, 0, 1, 0, 1, 0, 1, 0, 1
   283,  1,      8.43,     -0.83,         8,        -8,    1.024, 0,     100, 0, 1, 0, 0, 1, 1, 100,      23.5,       4.7, 1, 1, 0, 1, 0, 1, 0, 1, 0, 1
  1506,  1,     24.99,     -0.02,         6,       -11,    1.029, 0,     100, 0, 1, 0, 0, 1, 1, 100,        27,       5.4, 1, 1, 0, 1, 0, 1, 0, 1, 0, 1
  1506,  2,      7.94,     -0.02,         6,       -11,    1.029, 0,     100, 0, 1, 0, 0, 1, 1, 100,        27,       5.4, 1, 1, 0, 1, 0, 1, 0, 1, 0, 1
  1847,  1,        30,     -0.44,        12,        -8,    1.035, 0,     100, 0, 1, 0, 0, 1, 1, 100,        32,       6.4, 1, 1, 0, 1, 0, 1, 0, 1, 0, 1
  1398,  1,      9.19,         0,         0,         0,    1.021, 0,     100, 0, 1, 0, 0, 1, 1, 100,     20.02,         4, 1, 1, 0, 1, 0, 1, 0, 1, 0, 1
  1398,  2,      8.94,         0,         0,         0,    1.021, 0,     100, 0, 1, 0, 0, 1, 1, 100,     20.35,      4.07, 1, 1, 0, 1, 0, 1, 0, 1, 0, 1
   225,  1,         9,     -1.95,        45,       -45,     1.05, 0,     100, 0, 1, 0, 0, 1, 1, 100,        45,         9, 1, 1, 0, 1, 0, 1, 0, 1, 0, 1
   225,  2,     37.36,     -1.95,        45,       -45,     1.05, 0,     100, 0, 1, 0, 0, 1, 1, 100,        45,         9, 1, 1, 0, 1, 0, 1, 0, 1, 0, 1
  1607,  1,      1.57,         0,         0,         0,    1.038, 0,     100, 0, 1, 0, 0, 1, 1, 100,      1.74,         0, 1, 1, 0, 1, 0, 1, 0, 1, 0, 1
   314,  1,     17.53,     -0.22,        10,       -10,    0.986, 0,     100, 0, 1, 0, 0, 1, 1, 100,        20,         4, 1, 1, 0, 1, 0, 1, 0, 1, 0, 1
  2680,  1,     44.01,      2.53,       100,       -60,    1.022, 0,     100, 0, 1, 0, 0, 1, 1, 100,       239,        44, 1, 1, 0, 1, 0, 1, 0, 1, 0, 1
   582,  1,         0,         0,        70,       -45,    0.892, 0,     100, 0, 1, 0, 0, 1, 0, 100,       169,        82, 1, 1, 0, 1, 0, 1, 0, 1, 0, 1
  2978,  1,         0,         0,        70,       -45,    0.892, 0,     100, 0, 1, 0, 0, 1, 0, 100,       169,        82, 1, 1, 0, 1, 0, 1, 0, 1, 0, 1
  2977,  1,     44.01,      2.55,       100,       -60,    1.022, 0,     100, 0, 1, 0, 0, 1, 1, 100,       239,        44, 1, 1, 0, 1, 0, 1, 0, 1, 0, 1
   240,  1,      47.8,     -4.08,        80,       -75,    1.075, 0,     100, 0, 1, 0, 0, 1, 1, 100,       239,      47.8, 1, 1, 0, 1, 0, 1, 0, 1, 0, 1
  1655,  1,      7.18,         0,         0,         0,    1.016, 0,     100, 0, 1, 0, 0, 1, 1, 100,        12,       2.4, 1, 1, 0, 1, 0, 1, 0, 1, 0, 1
  1655,  2,      3.68,         0,         0,         0,    1.016, 0,     100, 0, 1, 0, 0, 1, 1, 100,         4,         0, 1, 1, 0, 1, 0, 1, 0, 1, 0, 1
  1150,  1,     36.15,         0,         0,         0,    1.047, 0,     100, 0, 1, 0, 0, 1, 1, 100,        54,      10.8, 1, 1, 0, 1, 0, 1, 0, 1, 0, 1
  1447,  1,      4.82,     -0.44,         2,        -3,    1.063, 0,     100, 0, 1, 0, 0, 1, 1, 100,         7,       1.4, 1, 1, 0, 1, 0, 1, 0, 1, 0, 1
   906,  1,         0,         0,         8,        -8,    1.077, 0,     100, 0, 1, 0, 0, 1, 0, 100,        21,       4.2, 1, 1, 0, 1, 0, 1, 0, 1, 0, 1
  1474,  1,         0,        -0,         1,        -1,    1.039, 0,     100, 0, 1, 0, 0, 1, 0, 100,         2,         0, 1, 1, 0, 1, 0, 1, 0, 1, 0, 1
  1474,  2,       1.6,        -0,         3,        -3,    1.039, 0,     100, 0, 1, 0, 0, 1, 1, 100,         8,       1.6, 1, 1, 0, 1, 0, 1, 0, 1, 0, 1
  1474,  3,       1.6,        -0,         3,        -3,    1.039, 0,     100, 0, 1, 0, 0, 1, 1, 100,         8,       1.6, 1, 1, 0, 1, 0, 1, 0, 1, 0, 1
   963,  1,      7.99,     -0.01,         1,        -2,    0.977, 0,     100, 0, 1, 0, 0, 1, 1, 100,       8.9,      1.78, 1, 1, 0, 1, 0, 1, 0, 1, 0, 1
   962,  1,      0.19,         0,         0,         0,    1.033, 0,     100, 0, 1, 0, 0, 1, 1, 100,        22,       4.4, 1, 1, 0, 1, 0, 1, 0, 1, 0, 1
   923,  1,        11,     -0.07,         5,        -5,    1.056, 0,     100, 0, 1, 0, 0, 1, 1, 100,        12,       2.4, 1, 1, 0, 1, 0, 1, 0, 1, 0, 1
  1153,  1,     14.99,     -0.22,      17.3,     -17.3,     1.04, 0,     100, 0, 1, 0, 0, 1, 1, 100,        16,       3.2, 1, 1, 0, 1, 0, 1, 0, 1, 0, 1
  1153,  2,     15.99,     -0.07,        10,       -10,     1.04, 0,     100, 0, 1, 0, 0, 1, 1, 100,      16.8,      3.36, 1, 1, 0, 1, 0, 1, 0, 1, 0, 1
   274,  1,      5.58,     -0.01,       3.7,      -3.7,    1.054, 0,     100, 0, 1, 0, 0, 1, 1, 100,       6.7,      1.34, 1, 1, 0, 1, 0, 1, 0, 1, 0, 1
   274,  2,      1.26,     -0.01,         3,        -3,    1.054, 0,     100, 0, 1, 0, 0, 1, 1, 100,       5.6,      1.12, 1, 1, 0, 1, 0, 1, 0, 1, 0, 1
  1776,  1,         9,     -0.08,         5,        -5,    1.035, 0,     100, 0, 1, 0, 0, 1, 1, 100,        10,         2, 1, 1, 0, 1, 0, 1, 0, 1, 0, 1
  1776,  2,         9,     -0.08,         5,        -5,    1.035, 0,     100, 0, 1, 0, 0, 1, 1, 100,        10,         2, 1, 1, 0, 1, 0, 1, 0, 1, 0, 1
...